@<TRIPOS>MOLECULE
UNL
  114   122     1     0     1
SMALL
USER_CHARGES
@<TRIPOS>ATOM
  1 N          -2.041403    0.011493   -0.641608 N         1 UNL       -0.3023 ****
  2 C          -2.804167   -1.143385   -0.874998 C         1 UNL        0.1104 ****
  3 C          -4.219296   -0.766686   -1.285926 C         1 UNL       -0.1443 ****
  4 H          -4.500556   -1.221707   -2.226879 H         1 UNL        0.0817 ****
  5 H          -4.935675   -1.090943   -0.540627 H         1 UNL        0.0817 ****
  6 C          -4.154093    0.754569   -1.374888 C         1 UNL       -0.0107 ****
  7 H          -4.893384    1.248080   -0.755647 H         1 UNL        0.0384 ****
  8 H          -4.285149    1.119252   -2.387614 H         1 UNL        0.0384 ****
  9 C          -2.747028    1.048573   -0.893667 C         1 UNL        0.2613 ****
 10 C          -2.377981   -2.404272   -0.749757 C         1 UNL       -0.0228 ****
 11 C          -3.361981   -3.495144   -1.055748 C         1 UNL        0.0645 ****
 12 C          -4.296024   -3.922135   -0.131382 C         1 UNL        0.0967 ****
 13 C          -5.206507   -4.936686   -0.395018 C         1 UNL       -0.0764 ****
 14 C          -5.182850   -5.555508   -1.635196 C         1 UNL       -0.1105 ****
 15 H          -5.888800   -6.335488   -1.840990 H         1 UNL        0.1863 ****
 16 C          -4.265091   -5.162817   -2.590174 C         1 UNL       -0.2664 ****
 17 H          -4.226125   -5.621128   -3.559356 H         1 UNL        0.1882 ****
 18 C          -3.384423   -4.147843   -2.280604 C         1 UNL        0.2220 ****
 19 F          -4.326994   -3.331058    1.044811 F         1 UNL       -0.1598 ****
 20 S          -6.431648   -5.403821    0.790649 S         1 UNL        1.0136 ****
 21 N          -5.569944   -5.902721    2.085848 N         1 UNL       -0.5220 ****
 22 H          -5.891211   -5.441992    2.912500 H         1 UNL        0.3663 ****
 23 C          -5.195775   -7.304666    2.220427 C         1 UNL       -0.0375 ****
 24 H          -4.557961   -7.389554    3.089365 H         1 UNL        0.0749 ****
 25 H          -6.051681   -7.958838    2.328268 H         1 UNL        0.0749 ****
 26 H          -4.626293   -7.611830    1.354137 H         1 UNL        0.0749 ****
 27 F          -2.520404   -3.772511   -3.204620 F         1 UNL       -0.1670 ****
 28 C          -2.304602    2.430699   -0.758073 C         1 UNL       -0.1526 ****
 29 C          -3.303037    3.502010   -1.083233 C         1 UNL        0.0829 ****
 30 C          -4.024063    4.159131   -0.101778 C         1 UNL        0.1082 ****
 31 C          -4.950420    5.152846   -0.386759 C         1 UNL       -0.0556 ****
 32 C          -5.170423    5.506777   -1.708556 C         1 UNL       -0.1160 ****
 33 H          -5.881273    6.278650   -1.927961 H         1 UNL        0.1912 ****
 34 C          -4.479563    4.873570   -2.724680 C         1 UNL       -0.2605 ****
 35 H          -4.630383    5.127941   -3.755816 H         1 UNL        0.1946 ****
 36 C          -3.570526    3.894592   -2.388880 C         1 UNL        0.1846 ****
 37 F          -3.817623    3.822070    1.153370 F         1 UNL       -0.1616 ****
 38 S          -5.803518    6.014150    0.903044 S         1 UNL        1.0191 ****
 39 N          -6.631322    4.844294    1.687163 N         1 UNL       -0.5153 ****
 40 H          -6.437568    4.884663    2.667112 H         1 UNL        0.3569 ****
 41 C          -8.006337    4.539995    1.306958 C         1 UNL       -0.0198 ****
 42 H          -8.322976    3.685965    1.889360 H         1 UNL        0.0714 ****
 43 H          -8.680812    5.369513    1.475835 H         1 UNL        0.0714 ****
 44 H          -8.041232    4.266836    0.261474 H         1 UNL        0.0714 ****
 45 F          -2.921890    3.283850   -3.364309 F         1 UNL       -0.1518 ****
 46 C          -1.076626    2.822309   -0.354559 C         1 UNL        0.0782 ****
 47 N          -0.000007    2.051355    0.000017 N         1 UNL       -0.0054 ****
 48 H          -0.000007    1.057110    0.000007 H         1 UNL        0.0404 ****
 49 C           1.076612    2.822304    0.354603 C         1 UNL        0.0557 ****
 50 C           0.628825    4.213745    0.208813 C         1 UNL       -0.1001 ****
 51 H           1.239151    5.067186    0.412357 H         1 UNL        0.1552 ****
 52 C          -0.628838    4.213748   -0.208755 C         1 UNL       -0.1212 ****
 53 H          -1.239163    5.067192   -0.412288 H         1 UNL        0.1607 ****
 54 C           2.304584    2.430685    0.758120 C         1 UNL       -0.1210 ****
 55 C           3.303025    3.501987    1.083285 C         1 UNL        0.0565 ****
 56 C           3.570586    3.894496    2.388940 C         1 UNL        0.1869 ****
 57 C           4.479631    4.873462    2.724748 C         1 UNL       -0.2428 ****
 58 H           4.630508    5.127771    3.755890 H         1 UNL        0.1903 ****
 59 C           5.170421    5.506743    1.708621 C         1 UNL       -0.1381 ****
 60 H           5.881274    6.278612    1.928032 H         1 UNL        0.1995 ****
 61 C           4.950342    5.152892    0.386816 C         1 UNL       -0.0881 ****
 62 C           4.023982    4.159182    0.101828 C         1 UNL        0.1524 ****
 63 F           2.922014    3.283686    3.364370 F         1 UNL       -0.1517 ****
 64 S           5.803343    6.014294   -0.902986 S         1 UNL        1.0862 ****
 65 N           6.631106    4.844503   -1.687244 N         1 UNL       -0.5604 ****
 66 H           6.437271    4.884927   -2.667175 H         1 UNL        0.3701 ****
 67 C           8.006154    4.540197   -1.307164 C         1 UNL       -0.0199 ****
 68 H           8.322752    3.686198   -1.889635 H         1 UNL        0.0744 ****
 69 H           8.680608    5.369728   -1.476058 H         1 UNL        0.0744 ****
 70 H           8.041138    4.266988   -0.261696 H         1 UNL        0.0744 ****
 71 F           3.817468    3.822202   -1.153330 F         1 UNL       -0.1699 ****
 72 O          -4.848799    6.520545    1.836754 O         1 UNL       -0.5471 ****
 73 O          -6.715427    6.896229    0.241210 O         1 UNL       -0.5435 ****
 74 C           2.747004    1.048556    0.893709 C         1 UNL        0.2504 ****
 75 C           4.154071    0.754545    1.374920 C         1 UNL       -0.0011 ****
 76 H           4.893352    1.248009    0.755627 H         1 UNL        0.0318 ****
 77 H           4.285163    1.119279    2.387621 H         1 UNL        0.0318 ****
 78 C           4.219244   -0.766715    1.286030 C         1 UNL       -0.0984 ****
 79 H           4.935675   -1.091027    0.540807 H         1 UNL        0.0674 ****
 80 H           4.500413   -1.221695    2.227031 H         1 UNL        0.0674 ****
 81 C           2.804136   -1.143402    0.875017 C         1 UNL        0.1160 ****
 82 N           2.041377    0.011481    0.641640 N         1 UNL       -0.3174 ****
 83 C           2.377964   -2.404288    0.749703 C         1 UNL       -0.0198 ****
 84 C           3.361959   -3.495166    1.055682 C         1 UNL        0.0383 ****
 85 C           4.296104   -3.922048    0.131369 C         1 UNL        0.0917 ****
 86 C           5.206587   -4.936600    0.394999 C         1 UNL       -0.0526 ****
 87 C           5.182820   -5.555543    1.635115 C         1 UNL       -0.1311 ****
 88 H           5.888769   -6.335524    1.840906 H         1 UNL        0.1920 ****
 89 C           4.264955   -5.162966    2.590038 C         1 UNL       -0.2648 ****
 90 H           4.225901   -5.621370    3.559173 H         1 UNL        0.1878 ****
 91 C           3.384294   -4.147983    2.280478 C         1 UNL        0.2416 ****
 92 F           4.327180   -3.330855   -1.044763 F         1 UNL       -0.1605 ****
 93 S           6.431860   -5.403589   -0.790589 S         1 UNL        1.0059 ****
 94 N           5.570295   -5.902391   -2.085919 N         1 UNL       -0.5120 ****
 95 H           5.891644   -5.441591   -2.912499 H         1 UNL        0.3619 ****
 96 C           5.196156   -7.304329   -2.220650 C         1 UNL       -0.0282 ****
 97 H           4.558417   -7.389151   -3.089650 H         1 UNL        0.0717 ****
 98 H           6.052081   -7.958480   -2.328475 H         1 UNL        0.0717 ****
 99 H           4.626606   -7.611575   -1.354434 H         1 UNL        0.0717 ****
100 F           2.520173   -3.772762    3.204443 F         1 UNL       -0.1709 ****
101 C           1.065491   -2.887791    0.337741 C         1 UNL       -0.0059 ****
102 N          -0.000010   -2.108484   -0.000023 N         1 UNL       -0.0963 ****
103 H          -0.000023   -1.116811    0.000031 H         1 UNL        0.2002 ****
104 C          -1.065489   -2.887785   -0.337868 C         1 UNL       -0.0209 ****
105 C          -0.670062   -4.197100   -0.211414 C         1 UNL       -0.2087 ****
106 H          -1.273719   -5.060164   -0.397167 H         1 UNL        0.1609 ****
107 C           0.670101   -4.197104    0.211145 C         1 UNL       -0.2584 ****
108 H           1.273781   -5.060172    0.396807 H         1 UNL        0.1739 ****
109 O          -7.130639   -6.512486    0.213943 O         1 UNL       -0.5431 ****
110 O          -7.146382   -4.241861    1.217038 O         1 UNL       -0.5491 ****
111 O           4.848553    6.520742   -1.836595 O         1 UNL       -0.5638 ****
112 O           6.715287    6.896339   -0.241155 O         1 UNL       -0.5571 ****
113 O           7.146603   -4.241570   -1.216801 O         1 UNL       -0.5476 ****
114 O           7.130825   -6.512287   -0.213917 O         1 UNL       -0.5455 ****
@<TRIPOS>BOND
    1     1     2 1
    2     1     9 1
    3     2     3 1
    4     2    10 1
    5     3     4 1
    6     3     5 1
    7     3     6 1
    8     6     7 1
    9     6     8 1
   10     6     9 1
   11     9    28 1
   12    10    11 1
   13    10   104 1
   14    11    12 1
   15    11    18 1
   16    12    13 1
   17    12    19 1
   18    13    14 1
   19    13    20 1
   20    14    15 1
   21    14    16 1
   22    16    17 1
   23    16    18 1
   24    18    27 1
   25    20    21 1
   26    20   109 1
   27    20   110 1
   28    21    22 1
   29    21    23 1
   30    23    24 1
   31    23    25 1
   32    23    26 1
   33    28    29 1
   34    28    46 1
   35    29    30 1
   36    29    36 1
   37    30    31 1
   38    30    37 1
   39    31    32 1
   40    31    38 1
   41    32    33 1
   42    32    34 1
   43    34    35 1
   44    34    36 1
   45    36    45 1
   46    38    39 1
   47    38    72 1
   48    38    73 1
   49    39    40 1
   50    39    41 1
   51    41    42 1
   52    41    43 1
   53    41    44 1
   54    46    47 1
   55    46    52 1
   56    47    48 1
   57    47    49 1
   58    49    50 1
   59    49    54 1
   60    50    51 1
   61    50    52 1
   62    52    53 1
   63    54    55 1
   64    54    74 1
   65    55    56 1
   66    55    62 1
   67    56    57 1
   68    56    63 1
   69    57    58 1
   70    57    59 1
   71    59    60 1
   72    59    61 1
   73    61    62 1
   74    61    64 1
   75    62    71 1
   76    64    65 1
   77    64   111 1
   78    64   112 1
   79    65    66 1
   80    65    67 1
   81    67    68 1
   82    67    69 1
   83    67    70 1
   84    74    75 1
   85    74    82 1
   86    75    76 1
   87    75    77 1
   88    75    78 1
   89    78    79 1
   90    78    80 1
   91    78    81 1
   92    81    82 1
   93    81    83 1
   94    83    84 1
   95    83   101 1
   96    84    85 1
   97    84    91 1
   98    85    86 1
   99    85    92 1
  100    86    87 1
  101    86    93 1
  102    87    88 1
  103    87    89 1
  104    89    90 1
  105    89    91 1
  106    91   100 1
  107    93    94 1
  108    93   113 1
  109    93   114 1
  110    94    95 1
  111    94    96 1
  112    96    97 1
  113    96    98 1
  114    96    99 1
  115   101   102 1
  116   101   107 1
  117   102   103 1
  118   102   104 1
  119   104   105 1
  120   105   106 1
  121   105   107 1
  122   107   108 1
@<TRIPOS>SUBSTRUCTURE
      1  UNL              1 ****               0 ****  ****  


