@<TRIPOS>MOLECULE
UNL
  114   122     1     0     1
SMALL
USER_CHARGES
@<TRIPOS>ATOM
  1 C          -3.347029   -2.654878   -0.086154 C         1 UNL       -0.2182 ****
  2 H          -3.783102   -3.630022   -0.138590 H         1 UNL        0.1646 ****
  3 C          -2.034372   -2.367262    0.198195 C         1 UNL       -0.0116 ****
  4 N          -1.898650   -1.011861    0.156267 N         1 UNL       -0.0682 ****
  5 H          -1.053179   -0.520680    0.321018 H         1 UNL        0.1812 ****
  6 C          -3.091742   -0.427955   -0.146889 C         1 UNL        0.0044 ****
  7 C          -4.012170   -1.435958   -0.300964 C         1 UNL       -0.2376 ****
  8 H          -5.047808   -1.314692   -0.538504 H         1 UNL        0.1682 ****
  9 C          -0.970765   -3.321804    0.486336 C         1 UNL       -0.0756 ****
 10 C          -1.412739   -4.755601    0.455816 C         1 UNL        0.0142 ****
 11 C          -1.231400   -5.556209   -0.655620 C         1 UNL        0.1183 ****
 12 C          -1.643471   -6.881197   -0.704023 C         1 UNL       -0.0354 ****
 13 C          -2.267276   -7.431989    0.404608 C         1 UNL       -0.1534 ****
 14 H          -2.581377   -8.456291    0.369489 H         1 UNL        0.1926 ****
 15 C          -2.471456   -6.668552    1.537724 C         1 UNL       -0.2260 ****
 16 H          -2.948088   -7.069208    2.411325 H         1 UNL        0.1778 ****
 17 C          -2.040382   -5.358674    1.537045 C         1 UNL        0.2198 ****
 18 F          -0.631733   -5.038868   -1.707538 F         1 UNL       -0.1634 ****
 19 S          -1.328231   -7.891016   -2.120324 S         1 UNL        0.9823 ****
 20 O          -1.950321   -9.151533   -1.847538 O         1 UNL       -0.5340 ****
 21 F          -2.229191   -4.642537    2.629141 F         1 UNL       -0.1604 ****
 22 C          -3.331251    1.004606   -0.276162 C         1 UNL       -0.0893 ****
 23 C          -4.751538    1.357494   -0.608086 C         1 UNL        0.0497 ****
 24 C          -5.665812    1.712820    0.365085 C         1 UNL        0.0771 ****
 25 C          -6.987009    2.027543    0.076820 C         1 UNL       -0.0453 ****
 26 C          -7.415560    1.986478   -1.240886 C         1 UNL       -0.1138 ****
 27 H          -8.433998    2.235100   -1.464575 H         1 UNL        0.1838 ****
 28 C          -6.536342    1.636092   -2.247178 C         1 UNL       -0.2664 ****
 29 H          -6.839196    1.599891   -3.275679 H         1 UNL        0.1855 ****
 30 C          -5.234209    1.333322   -1.909181 C         1 UNL        0.2443 ****
 31 F          -5.259363    1.761032    1.616449 F         1 UNL       -0.1521 ****
 32 S          -8.108727    2.538554    1.344013 S         1 UNL        0.9873 ****
 33 O          -9.378031    2.698303    0.700799 O         1 UNL       -0.5366 ****
 34 F          -4.400137    1.009101   -2.878987 F         1 UNL       -0.1669 ****
 35 C          -2.467418    2.014497   -0.131476 C         1 UNL        0.1551 ****
 36 N          -1.102213    1.893273    0.173274 N         1 UNL       -0.3274 ****
 37 C          -0.565742    3.054319    0.195859 C         1 UNL        0.2768 ****
 38 C          -1.510799    4.196592   -0.118814 C         1 UNL       -0.0673 ****
 39 H          -1.203646    4.697662   -1.030019 H         1 UNL        0.0617 ****
 40 H          -1.511198    4.937286    0.671741 H         1 UNL        0.0617 ****
 41 C          -2.849471    3.480290   -0.266568 C         1 UNL       -0.0779 ****
 42 H          -3.322263    3.687730   -1.217672 H         1 UNL        0.0628 ****
 43 H          -3.544343    3.770176    0.512610 H         1 UNL        0.0628 ****
 44 C           0.835906    3.333316    0.488398 C         1 UNL       -0.0997 ****
 45 C           1.775958    2.406342    0.768838 C         1 UNL        0.0471 ****
 46 N           1.650328    1.042236    0.839679 N         1 UNL       -0.0314 ****
 47 H           0.801555    0.550334    0.677608 H         1 UNL        0.0396 ****
 48 C           2.841150    0.441740    1.154297 C         1 UNL        0.0846 ****
 49 C           3.808060    1.538173    1.299084 C         1 UNL       -0.1194 ****
 50 H           4.839049    1.402883    1.546264 H         1 UNL        0.1520 ****
 51 C           3.186092    2.685530    1.069098 C         1 UNL       -0.1056 ****
 52 H           3.613482    3.664894    1.088666 H         1 UNL        0.1426 ****
 53 C           3.115983   -0.872121    1.307038 C         1 UNL       -0.1023 ****
 54 C           2.156820   -1.957849    1.147197 C         1 UNL        0.2100 ****
 55 C           2.601488   -3.391703    1.358182 C         1 UNL       -0.0077 ****
 56 H           2.912143   -3.538218    2.386585 H         1 UNL        0.0320 ****
 57 H           3.446392   -3.639218    0.726845 H         1 UNL        0.0320 ****
 58 C           1.342932   -4.179336    1.008288 C         1 UNL       -0.0516 ****
 59 H           1.037562   -4.842038    1.807740 H         1 UNL        0.0509 ****
 60 H           1.486605   -4.784365    0.121097 H         1 UNL        0.0509 ****
 61 C           0.317035   -3.085080    0.755898 C         1 UNL        0.1572 ****
 62 N           0.923884   -1.821875    0.834396 N         1 UNL       -0.2986 ****
 63 N          -8.162546    1.267761    2.370050 N         1 UNL       -0.5301 ****
 64 H          -7.996475    1.574054    3.306787 H         1 UNL        0.3685 ****
 65 C          -9.163382    0.224128    2.190292 C         1 UNL       -0.0337 ****
 66 H          -8.957021   -0.553124    2.913109 H         1 UNL        0.0754 ****
 67 H         -10.175428    0.586264    2.319995 H         1 UNL        0.0754 ****
 68 H          -9.067625   -0.202429    1.201344 H         1 UNL        0.0754 ****
 69 O          -7.531760    3.616805    2.083210 O         1 UNL       -0.5394 ****
 70 C           1.260083    4.772232    0.481341 C         1 UNL        0.0911 ****
 71 C           1.541308    5.444618   -0.694856 C         1 UNL        0.0831 ****
 72 C           1.929790    6.775534   -0.728657 C         1 UNL       -0.0672 ****
 73 C           2.037188    7.472507    0.465037 C         1 UNL       -0.1096 ****
 74 H           2.331260    8.503117    0.439886 H         1 UNL        0.1896 ****
 75 C           1.763390    6.845711    1.665725 C         1 UNL       -0.2547 ****
 76 H           1.835054    7.362704    2.602908 H         1 UNL        0.1907 ****
 77 C           1.379217    5.521875    1.644928 C         1 UNL        0.1996 ****
 78 F           1.428302    4.782541   -1.827343 F         1 UNL       -0.1583 ****
 79 S           2.222999    7.611412   -2.261161 S         1 UNL        1.0007 ****
 80 O           2.673402    8.922363   -1.906151 O         1 UNL       -0.5340 ****
 81 F           1.117126    4.931789    2.796397 F         1 UNL       -0.1658 ****
 82 N           3.443891    6.771434   -2.948784 N         1 UNL       -0.5188 ****
 83 H           3.195017    6.503855   -3.879335 H         1 UNL        0.3661 ****
 84 C           4.826840    7.184165   -2.737756 C         1 UNL       -0.0425 ****
 85 H           5.461675    6.443559   -3.203928 H         1 UNL        0.0780 ****
 86 H           5.039728    8.161901   -3.150396 H         1 UNL        0.0780 ****
 87 H           5.043975    7.195930   -1.678701 H         1 UNL        0.0780 ****
 88 O           1.090132    7.435227   -3.112586 O         1 UNL       -0.5386 ****
 89 C           4.525823   -1.250490    1.652181 C         1 UNL        0.0386 ****
 90 C           4.909980   -1.580337    2.946109 C         1 UNL        0.1624 ****
 91 C           6.194141   -1.931650    3.299780 C         1 UNL       -0.2285 ****
 92 H           6.417555   -2.170885    4.321341 H         1 UNL        0.1879 ****
 93 C           7.164392   -1.957497    2.315573 C         1 UNL       -0.1356 ****
 94 H           8.177242   -2.217665    2.551569 H         1 UNL        0.1932 ****
 95 C           6.839856   -1.642206    1.005627 C         1 UNL       -0.0734 ****
 96 C           5.529780   -1.298876    0.700901 C         1 UNL        0.1788 ****
 97 F           3.985234   -1.565292    3.889572 F         1 UNL       -0.1464 ****
 98 S           8.108411   -1.618757   -0.228523 S         1 UNL        1.0401 ****
 99 O           9.291383   -2.090501    0.423932 O         1 UNL       -0.5427 ****
100 F           5.223358   -1.001806   -0.543921 F         1 UNL       -0.1734 ****
101 N           7.611140   -2.709345   -1.337598 N         1 UNL       -0.5622 ****
102 H           7.610837   -2.298135   -2.248804 H         1 UNL        0.3771 ****
103 C           8.050069   -4.097681   -1.248369 C         1 UNL       -0.0247 ****
104 H           7.534722   -4.651468   -2.020674 H         1 UNL        0.0767 ****
105 H           9.119962   -4.207000   -1.370326 H         1 UNL        0.0767 ****
106 H           7.762311   -4.507843   -0.290343 H         1 UNL        0.0767 ****
107 O           8.096539   -0.349584   -0.884164 O         1 UNL       -0.5568 ****
108 N          -2.113061   -7.135000   -3.337271 N         1 UNL       -0.5426 ****
109 H          -1.498853   -7.001612   -4.114298 H         1 UNL        0.3776 ****
110 C          -3.494297   -7.482534   -3.645580 C         1 UNL       -0.0126 ****
111 H          -3.838387   -6.801243   -4.411395 H         1 UNL        0.0703 ****
112 H          -3.603573   -8.504050   -3.987202 H         1 UNL        0.0703 ****
113 H          -4.108204   -7.338638   -2.767213 H         1 UNL        0.0703 ****
114 O           0.061489   -7.827340   -2.448332 O         1 UNL       -0.5425 ****
@<TRIPOS>BOND
    1     1     2 1
    2     1     3 1
    3     1     7 1
    4     3     4 1
    5     3     9 1
    6     4     5 1
    7     4     6 1
    8     6     7 1
    9     6    22 1
   10     7     8 1
   11     9    10 1
   12     9    61 1
   13    10    11 1
   14    10    17 1
   15    11    12 1
   16    11    18 1
   17    12    13 1
   18    12    19 1
   19    13    14 1
   20    13    15 1
   21    15    16 1
   22    15    17 1
   23    17    21 1
   24    19    20 1
   25    19   108 1
   26    19   114 1
   27    22    23 1
   28    22    35 1
   29    23    24 1
   30    23    30 1
   31    24    25 1
   32    24    31 1
   33    25    26 1
   34    25    32 1
   35    26    27 1
   36    26    28 1
   37    28    29 1
   38    28    30 1
   39    30    34 1
   40    32    33 1
   41    32    63 1
   42    32    69 1
   43    35    36 1
   44    35    41 1
   45    36    37 1
   46    37    38 1
   47    37    44 1
   48    38    39 1
   49    38    40 1
   50    38    41 1
   51    41    42 1
   52    41    43 1
   53    44    45 1
   54    44    70 1
   55    45    46 1
   56    45    51 1
   57    46    47 1
   58    46    48 1
   59    48    49 1
   60    48    53 1
   61    49    50 1
   62    49    51 1
   63    51    52 1
   64    53    54 1
   65    53    89 1
   66    54    55 1
   67    54    62 1
   68    55    56 1
   69    55    57 1
   70    55    58 1
   71    58    59 1
   72    58    60 1
   73    58    61 1
   74    61    62 1
   75    63    64 1
   76    63    65 1
   77    65    66 1
   78    65    67 1
   79    65    68 1
   80    70    71 1
   81    70    77 1
   82    71    72 1
   83    71    78 1
   84    72    73 1
   85    72    79 1
   86    73    74 1
   87    73    75 1
   88    75    76 1
   89    75    77 1
   90    77    81 1
   91    79    80 1
   92    79    82 1
   93    79    88 1
   94    82    83 1
   95    82    84 1
   96    84    85 1
   97    84    86 1
   98    84    87 1
   99    89    90 1
  100    89    96 1
  101    90    91 1
  102    90    97 1
  103    91    92 1
  104    91    93 1
  105    93    94 1
  106    93    95 1
  107    95    96 1
  108    95    98 1
  109    96   100 1
  110    98    99 1
  111    98   101 1
  112    98   107 1
  113   101   102 1
  114   101   103 1
  115   103   104 1
  116   103   105 1
  117   103   106 1
  118   108   109 1
  119   108   110 1
  120   110   111 1
  121   110   112 1
  122   110   113 1
@<TRIPOS>SUBSTRUCTURE
      1  UNL              1 ****               0 ****  ****  


