@<TRIPOS>MOLECULE
ABA
114   122    1
SMALL
USER_CHARGES


@<TRIPOS>ATOM
      1 N1         -0.6317    2.0840    0.0596 N.3       1 ABA        -0.3556 
      2 C1          0.1372    3.1056    0.0819 C.3       1 ABA         0.2323 
      3 C2         -0.5814    4.4401    0.0605 C.3       1 ABA         0.0035 
      4 H8         -0.3710    4.9973    0.9659 H         1 ABA         0.0285 
      5 H21        -0.2526    5.0467   -0.7754 H         1 ABA         0.0285 
      6 C3         -2.0456    4.0226   -0.0398 C.3       1 ABA        -0.0485 
      7 H7         -2.5007    4.3639   -0.9622 H         1 ABA         0.0501 
      8 H22        -2.6341    4.4168    0.7782 H         1 ABA         0.0501 
      9 C4         -1.9702    2.5040    0.0054 C.3       1 ABA         0.1757 
     10 C5          1.5946    3.0686    0.1151 C.3       1 ABA        -0.1069 
     11 C6          2.3106    4.3862    0.1432 C.3       1 ABA         0.0826 
     12 C7          2.8814    4.9427   -0.9869 C.3       1 ABA         0.1077 
     13 C8          3.5511    6.1562   -0.9766 C.3       1 ABA        -0.1950 
     14 C9          3.6488    6.8578    0.2138 C.3       1 ABA        -0.1150 
     15 H11         4.1659    7.7968    0.2237 H         1 ABA         0.2048 
     16 C10         3.0875    6.3483    1.3701 C.3       1 ABA        -0.2305 
     17 H12         3.1480    6.8700    2.3055 H         1 ABA         0.1831 
     18 C11         2.4397    5.1346    1.3071 C.3       1 ABA         0.1879 
     19 F1          2.7821    4.2852   -2.1270 F         1 ABA        -0.0882 
     20 S1          4.3398    6.7881   -2.4316 S.3       1 ABA         1.1249 
     21 N2          3.1343    6.9697   -3.5235 N.3       1 ABA        -0.6118 
     22 H23         2.9154    7.9401   -3.6249 H         1 ABA         0.3702 
     23 C12         3.1409    6.2003   -4.7688 C.3       1 ABA        -0.0016 
     24 H24         2.1976    6.3881   -5.2631 H         1 ABA         0.0734 
     25 H25         3.9560    6.4777   -5.4255 H         1 ABA         0.0734 
     26 H26         3.2109    5.1496   -4.5425 H         1 ABA         0.0734 
     27 F2          1.8987    4.6565    2.4135 F         1 ABA        -0.1461 
     28 C13        -3.0422    1.7056   -0.0105 C.3       1 ABA        -0.0625 
     29 C14        -4.3891    2.3631   -0.0866 C.3       1 ABA        -0.0114 
     30 C15        -5.0367    2.8491    1.0328 C.3       1 ABA         0.0653 
     31 C16        -6.2904    3.4432    0.9775 C.3       1 ABA        -0.0227 
     32 C17        -6.9276    3.5553   -0.2485 C.3       1 ABA        -0.1501 
     33 H17        -7.8938    4.0174   -0.2921 H         1 ABA         0.1914 
     34 C18        -6.3182    3.0825   -1.3946 C.3       1 ABA        -0.2322 
     35 H18        -6.7867    3.1577   -2.3567 H         1 ABA         0.1778 
     36 C19        -5.0714    2.5035   -1.2873 C.3       1 ABA         0.2442 
     37 F3         -4.4299    2.7513    2.1972 F         1 ABA        -0.1472 
     38 S2         -7.0554    4.1129    2.4236 S.3       1 ABA         1.0217 
     39 N3         -7.2133    2.8318    3.4248 N.3       1 ABA        -0.4881 
     40 H35        -6.8423    3.0509    4.3266 H         1 ABA         0.3506 
     41 C20        -8.4256    2.0236    3.3937 C.3       1 ABA        -0.0285 
     42 H36        -8.2758    1.1857    4.0604 H         1 ABA         0.0696 
     43 H37        -9.3066    2.5774    3.6926 H         1 ABA         0.0696 
     44 H38        -8.5765    1.6359    2.3957 H         1 ABA         0.0696 
     45 F4         -4.4920    2.0668   -2.3893 F         1 ABA        -0.1624 
     46 C21        -3.0977    0.2499    0.0389 C.3       1 ABA        -0.0090 
     47 N4         -2.0239   -0.5888    0.0409 N.3       1 ABA        -0.1060 
     48 H10        -1.0766   -0.2979    0.0132 H         1 ABA         0.2093 
     49 C22        -2.4403   -1.8855    0.0904 C.3       1 ABA         0.0306 
     50 C23        -3.8136   -1.8735    0.1233 C.3       1 ABA        -0.2671 
     51 H5         -4.4530   -2.7298    0.1622 H         1 ABA         0.1960 
     52 C24        -4.2266   -0.5313    0.0903 C.3       1 ABA        -0.2027 
     53 H6         -5.2371   -0.1816    0.1043 H         1 ABA         0.1676 
     54 C25        -1.5746   -3.0579    0.0987 C.3       1 ABA        -0.1123 
     55 C26        -2.3166   -4.3622    0.1293 C.3       1 ABA         0.0585 
     56 C27        -2.6159   -5.0175    1.3150 C.3       1 ABA         0.2305 
     57 C28        -3.3074   -6.2087    1.3759 C.3       1 ABA        -0.2405 
     58 H15        -3.5020   -6.6604    2.3293 H         1 ABA         0.1764 
     59 C29        -3.7324   -6.7880    0.1959 C.3       1 ABA        -0.1167 
     60 H16        -4.2714   -7.7145    0.2031 H         1 ABA         0.1971 
     61 C30        -3.4624   -6.1751   -1.0173 C.3       1 ABA        -0.1653 
     62 C31        -2.7661   -4.9766   -1.0236 C.3       1 ABA         0.0903 
     63 F5         -2.2025   -4.4799    2.4483 F         1 ABA        -0.1583 
     64 S3         -4.0589   -6.9071   -2.5143 S.3       1 ABA         1.1098 
     65 N5         -2.7182   -7.1662   -3.4224 N.3       1 ABA        -0.6217 
     66 H31        -2.5109   -8.1442   -3.4373 H         1 ABA         0.3681 
     67 C32        -2.5551   -6.4797   -4.7040 C.3       1 ABA         0.0232 
     68 H32        -1.5582   -6.7024   -5.0601 H         1 ABA         0.0662 
     69 H33        -3.2821   -6.7949   -5.4423 H         1 ABA         0.0662 
     70 H34        -2.6413   -5.4163   -4.5559 H         1 ABA         0.0662 
     71 F6         -2.4993   -4.4058   -2.1831 F         1 ABA        -0.0796 
     72 O1         -6.1476    5.0081    3.0696 O.3       1 ABA        -0.5559 
     73 O2         -8.3471    4.5690    2.0065 O.3       1 ABA        -0.5522 
     74 C33        -0.2391   -3.1132    0.0860 C.3       1 ABA         0.1342 
     75 C34         0.5531   -4.4116    0.0951 C.3       1 ABA        -0.0029 
     76 H4          0.3402   -4.9959    0.9816 H         1 ABA         0.0249 
     77 H20         0.3136   -5.0264   -0.7639 H         1 ABA         0.0249 
     78 C35         2.0010   -3.9302    0.0701 C.3       1 ABA        -0.0426 
     79 H2          2.5612   -4.2500    0.9404 H         1 ABA         0.0515 
     80 H19         2.5447   -4.2682   -0.8050 H         1 ABA         0.0515 
     81 C36         1.8419   -2.4225    0.0552 C.3       1 ABA         0.2622 
     82 N6          0.6309   -2.0117    0.0637 N.3       1 ABA        -0.3404 
     83 C37         3.0247   -1.5693    0.0353 C.3       1 ABA        -0.0642 
     84 C38         4.3588   -2.2536   -0.0136 C.3       1 ABA         0.0524 
     85 C39         4.9535   -2.7850    1.1171 C.3       1 ABA         0.0587 
     86 C40         6.1807   -3.4306    1.0921 C.3       1 ABA        -0.0462 
     87 C41         6.8477   -3.5553   -0.1172 C.3       1 ABA        -0.1178 
     88 H14         7.7938   -4.0589   -0.1389 H         1 ABA         0.1894 
     89 C42         6.2944   -3.0420   -1.2745 C.3       1 ABA        -0.2537 
     90 H13         6.7878   -3.1268   -2.2232 H         1 ABA         0.1898 
     91 C43         5.0695   -2.4138   -1.1968 C.3       1 ABA         0.2182 
     92 F7          4.3142   -2.6721    2.2629 F         1 ABA        -0.1539 
     93 S4          6.8693   -4.1582    2.5511 S.3       1 ABA         1.0062 
     94 N7          7.0547   -2.9018    3.5796 N.3       1 ABA        -0.5249 
     95 H27         6.6207   -3.1105    4.4558 H         1 ABA         0.3693 
     96 C44         8.3251   -2.1874    3.6382 C.3       1 ABA        -0.0342 
     97 H28         8.1976   -1.3531    4.3140 H         1 ABA         0.0758 
     98 H29         9.1418   -2.8117    3.9770 H         1 ABA         0.0758 
     99 H30         8.5661   -1.7957    2.6598 H         1 ABA         0.0758 
    100 F8          4.5462   -1.9330   -2.3090 F         1 ABA        -0.1669 
    101 C45         3.0158   -0.2192    0.0568 C.3       1 ABA         0.0538 
    102 N8          1.9456    0.6378    0.0756 N.3       1 ABA        -0.0608 
    103 H9          0.9952    0.3454    0.0739 H         1 ABA         0.0806 
    104 C46         2.3485    1.9480    0.1039 C.3       1 ABA         0.0646 
    105 C47         3.8168    1.9068    0.1125 C.3       1 ABA        -0.1459 
    106 H1          4.4433    2.7723    0.1407 H         1 ABA         0.1762 
    107 C48         4.2062    0.6404    0.0782 C.3       1 ABA        -0.1231 
    108 H3          5.2107    0.2755    0.0754 H         1 ABA         0.1570 
    109 O3          4.8039    8.0971   -2.0839 O.3       1 ABA        -0.5787 
    110 O4          5.2426    5.7932   -2.9147 O.3       1 ABA        -0.5297 
    111 O5         -4.5719   -8.1926   -2.1442 O.3       1 ABA        -0.5807 
    112 O6         -4.8840   -5.9577   -3.1892 O.3       1 ABA        -0.5248 
    113 O7          5.8964   -5.0183    3.1455 O.3       1 ABA        -0.5386 
    114 O8          8.1510   -4.6628    2.1639 O.3       1 ABA        -0.5371 
@<TRIPOS>BOND
     1    1    2 1    
     2    1    9 1    
     3    2    3 1    
     4    2   10 1    
     5    3    4 1    
     6    3    5 1    
     7    3    6 1    
     8    6    7 1    
     9    6    8 1    
    10    6    9 1    
    11    9   28 1    
    12   10   11 1    
    13   10  104 1    
    14   11   12 1    
    15   11   18 1    
    16   12   13 1    
    17   12   19 1    
    18   13   14 1    
    19   13   20 1    
    20   14   15 1    
    21   14   16 1    
    22   16   17 1    
    23   16   18 1    
    24   18   27 1    
    25   20   21 1    
    26   20  109 1    
    27   20  110 1    
    28   21   22 1    
    29   21   23 1    
    30   23   24 1    
    31   23   25 1    
    32   23   26 1    
    33   28   29 1    
    34   28   46 1    
    35   29   30 1    
    36   29   36 1    
    37   30   31 1    
    38   30   37 1    
    39   31   32 1    
    40   31   38 1    
    41   32   33 1    
    42   32   34 1    
    43   34   35 1    
    44   34   36 1    
    45   36   45 1    
    46   38   39 1    
    47   38   72 1    
    48   38   73 1    
    49   39   40 1    
    50   39   41 1    
    51   41   42 1    
    52   41   43 1    
    53   41   44 1    
    54   46   47 1    
    55   46   52 1    
    56   47   48 1    
    57   47   49 1    
    58   49   50 1    
    59   49   54 1    
    60   50   51 1    
    61   50   52 1    
    62   52   53 1    
    63   54   55 1    
    64   54   74 1    
    65   55   56 1    
    66   55   62 1    
    67   56   57 1    
    68   56   63 1    
    69   57   58 1    
    70   57   59 1    
    71   59   60 1    
    72   59   61 1    
    73   61   62 1    
    74   61   64 1    
    75   62   71 1    
    76   64   65 1    
    77   64  111 1    
    78   64  112 1    
    79   65   66 1    
    80   65   67 1    
    81   67   68 1    
    82   67   69 1    
    83   67   70 1    
    84   74   75 1    
    85   74   82 1    
    86   75   76 1    
    87   75   77 1    
    88   75   78 1    
    89   78   79 1    
    90   78   80 1    
    91   78   81 1    
    92   81   82 1    
    93   81   83 1    
    94   83   84 1    
    95   83  101 1    
    96   84   85 1    
    97   84   91 1    
    98   85   86 1    
    99   85   92 1    
   100   86   87 1    
   101   86   93 1    
   102   87   88 1    
   103   87   89 1    
   104   89   90 1    
   105   89   91 1    
   106   91  100 1    
   107   93   94 1    
   108   93  113 1    
   109   93  114 1    
   110   94   95 1    
   111   94   96 1    
   112   96   97 1    
   113   96   98 1    
   114   96   99 1    
   115  101  102 1    
   116  101  107 1    
   117  102  103 1    
   118  102  104 1    
   119  104  105 1    
   120  105  106 1    
   121  105  107 1    
   122  107  108 1    
@<TRIPOS>SUBSTRUCTURE
     1 ABA         1 GROUP             0       ****    0 ROOT    
