@<TRIPOS>MOLECULE
AL4
114   122    1
SMALL
USER_CHARGES


@<TRIPOS>ATOM
      1 C           1.3903   -4.0143   -1.0058 C.3       1 AL4        -0.1201 
      2 H           1.2099   -5.0676   -0.9906 H         1 AL4         0.1471 
      3 C           0.3330   -2.9953   -1.0050 C.3       1 AL4         0.0334 
      4 N           0.9867   -1.7901   -1.0170 N.3       1 AL4        -0.0632 
      5 H           0.5303   -0.9067   -1.0079 H         1 AL4         0.0840 
      6 C           2.3478   -1.9543   -1.0275 C.3       1 AL4         0.0604 
      7 C           2.5678   -3.4065   -1.0244 C.3       1 AL4        -0.0952 
      8 H           3.5311   -3.8695   -1.0321 H         1 AL4         0.1505 
      9 C          -0.9944   -3.2427   -0.9975 C.3       1 AL4        -0.0593 
     10 C          -1.4342   -4.6768   -0.9891 C.3       1 AL4         0.0513 
     11 C          -1.8608   -5.3025    0.1691 C.3       1 AL4         0.0403 
     12 C          -2.2827   -6.6232    0.2024 C.3       1 AL4        -0.0416 
     13 C          -2.2824   -7.3565   -0.9742 C.3       1 AL4        -0.1177 
     14 H          -2.6131   -8.3760   -0.9510 H         1 AL4         0.1897 
     15 C          -1.8666   -6.7759   -2.1571 C.3       1 AL4        -0.2609 
     16 H          -1.8593   -7.3193   -3.0820 H         1 AL4         0.1886 
     17 C          -1.4614   -5.4581   -2.1376 C.3       1 AL4         0.2545 
     18 F          -1.8688   -4.6011    1.2834 F         1 AL4        -0.1477 
     19 S          -2.8841   -7.3606    1.6949 S.3       1 AL4         0.9807 
     20 O          -3.1521   -8.7280    1.3695 O.3       1 AL4        -0.5324 
     21 F          -1.0702   -4.9114   -3.2739 F         1 AL4        -0.1829 
     22 C           3.3171   -1.0138   -1.0370 C.3       1 AL4        -0.0371 
     23 C           4.7410   -1.4853   -1.0422 C.3       1 AL4         0.0153 
     24 C           5.3758   -1.9255    0.1060 C.3       1 AL4         0.1519 
     25 C           6.6912   -2.3687    0.1163 C.3       1 AL4        -0.0493 
     26 C           7.4096   -2.3682   -1.0689 C.3       1 AL4        -0.1386 
     27 H           8.4239   -2.7151   -1.0616 H         1 AL4         0.1885 
     28 C           6.8214   -1.9297   -2.2405 C.3       1 AL4        -0.2042 
     29 H           7.3540   -1.9187   -3.1716 H         1 AL4         0.1825 
     30 C           5.5121   -1.5040   -2.1980 C.3       1 AL4         0.1395 
     31 F           4.6960   -1.9249    1.2328 F         1 AL4        -0.1658 
     32 S           7.4403   -2.9935    1.5933 S.3       1 AL4         1.0116 
     33 O           8.7977   -3.2836    1.2454 O.3       1 AL4        -0.5324 
     34 F           4.9577   -1.0786   -3.3192 F         1 AL4        -0.1433 
     35 C           3.0949    0.4272   -1.0234 C.3       1 AL4         0.2281 
     36 N           1.9533    1.0031   -0.9967 N.3       1 AL4        -0.3623 
     37 C           2.1299    2.3955   -0.9688 C.3       1 AL4         0.1653 
     38 C           3.6112    2.7384   -0.9275 C.3       1 AL4        -0.0798 
     39 H           3.8937    3.4014   -1.7351 H         1 AL4         0.0664 
     40 H           3.8672    3.2312    0.0027 H         1 AL4         0.0664 
     41 C           4.2804    1.3720   -1.0398 C.3       1 AL4        -0.0302 
     42 H           4.9606    1.1643   -0.2225 H         1 AL4         0.0396 
     43 H           4.8380    1.2556   -1.9624 H         1 AL4         0.0396 
     44 C           1.1551    3.3101   -0.9617 C.3       1 AL4        -0.0265 
     45 C          -0.2883    3.1069   -0.9666 C.3       1 AL4        -0.0073 
     46 N          -0.9226    1.9018   -1.0079 N.3       1 AL4        -0.1094 
     47 H          -0.4673    1.0216   -1.0383 H         1 AL4         0.2028 
     48 C          -2.2734    2.0810   -0.9918 C.3       1 AL4        -0.0007 
     49 C          -2.5065    3.4338   -0.9408 C.3       1 AL4        -0.1656 
     50 H          -3.4634    3.9104   -0.9137 H         1 AL4         0.1531 
     51 C          -1.2587    4.0784   -0.9235 C.3       1 AL4        -0.2423 
     52 H          -1.0948    5.1342   -0.8786 H         1 AL4         0.1691 
     53 C          -3.2733    1.0212   -1.0247 C.3       1 AL4        -0.0501 
     54 C          -3.0905   -0.3027   -1.0392 C.3       1 AL4         0.1164 
     55 C          -4.2267   -1.3126   -1.0863 C.3       1 AL4        -0.0125 
     56 H          -4.9240   -1.1706   -0.2709 H         1 AL4         0.0296 
     57 H          -4.7847   -1.2236   -2.0113 H         1 AL4         0.0296 
     58 C          -3.4990   -2.6505   -0.9931 C.3       1 AL4        -0.0478 
     59 H          -3.7293   -3.1852   -0.0787 H         1 AL4         0.0541 
     60 H          -3.7224   -3.3146   -1.8197 H         1 AL4         0.0541 
     61 C          -2.0427   -2.2287   -1.0055 C.3       1 AL4         0.2569 
     62 N          -1.8523   -0.9642   -1.0225 N.3       1 AL4        -0.3283 
     63 N           7.3880   -1.7364    2.6339 N.3       1 AL4        -0.5475 
     64 H           6.9664   -2.0191    3.4952 H         1 AL4         0.3778 
     65 C           8.5160   -0.8164    2.7301 C.3       1 AL4        -0.0618 
     66 H           8.2301   -0.0215    3.4047 H         1 AL4         0.0857 
     67 H           9.4175   -1.2958    3.0890 H         1 AL4         0.0857 
     68 H           8.7123   -0.3811    1.7601 H         1 AL4         0.0857 
     69 O           6.5998   -4.0064    2.1487 O.3       1 AL4        -0.5501 
     70 C           1.5666    4.7528   -0.9278 C.3       1 AL4         0.0272 
     71 C           1.9025    5.3920    0.2502 C.3       1 AL4         0.0540 
     72 C           2.2681    6.7303    0.3020 C.3       1 AL4        -0.0199 
     73 C           2.2989    7.4644   -0.8735 C.3       1 AL4        -0.1362 
     74 H           2.5848    8.4968   -0.8345 H         1 AL4         0.1836 
     75 C           1.9709    6.8668   -2.0751 C.3       1 AL4        -0.2198 
     76 H           1.9886    7.4097   -3.0002 H         1 AL4         0.1789 
     77 C           1.6164    5.5343   -2.0738 C.3       1 AL4         0.1958 
     78 F           1.8827    4.6947    1.3668 F         1 AL4        -0.1518 
     79 S           2.7504    7.4933    1.8222 S.3       1 AL4         0.9954 
     80 O           2.9808    8.8718    1.5109 O.3       1 AL4        -0.5427 
     81 F           1.3157    4.9701   -3.2282 F         1 AL4        -0.1628 
     82 N           1.4350    7.3489    2.7782 N.3       1 AL4        -0.4954 
     83 H           1.6884    6.9543    3.6607 H         1 AL4         0.3569 
     84 C           0.4181    8.3928    2.7919 C.3       1 AL4        -0.0277 
     85 H          -0.3979    8.0447    3.4097 H         1 AL4         0.0711 
     86 H           0.7907    9.3356    3.1721 H         1 AL4         0.0711 
     87 H           0.0401    8.5427    1.7900 H         1 AL4         0.0711 
     88 O           3.7754    6.7123    2.4409 O.3       1 AL4        -0.5507 
     89 C          -4.6885    1.5207   -1.0489 C.3       1 AL4         0.0015 
     90 C          -5.3633    1.7702   -2.2349 C.3       1 AL4         0.1688 
     91 C          -6.6558    2.2472   -2.2938 C.3       1 AL4        -0.2049 
     92 H          -7.1151    2.4186   -3.2481 H         1 AL4         0.1781 
     93 C          -7.3224    2.4942   -1.1097 C.3       1 AL4        -0.1680 
     94 H          -8.3271    2.8677   -1.1137 H         1 AL4         0.1909 
     95 C          -6.6969    2.2604    0.1055 C.3       1 AL4        -0.0115 
     96 C          -5.3924    1.7853    0.1111 C.3       1 AL4         0.1428 
     97 F          -4.7394    1.5248   -3.3725 F         1 AL4        -0.1517 
     98 S          -7.5545    2.6184    1.6098 S.3       1 AL4         1.0090 
     99 O          -8.8792    2.9997    1.2221 O.3       1 AL4        -0.5422 
    100 F          -4.8025    1.5572    1.2647 F         1 AL4        -0.1618 
    101 N          -7.5994    1.1837    2.3949 N.3       1 AL4        -0.5447 
    102 H          -7.2594    1.2951    3.3284 H         1 AL4         0.3683 
    103 C          -8.7407    0.2936    2.2214 C.3       1 AL4        -0.0208 
    104 H          -8.5241   -0.6218    2.7548 H         1 AL4         0.0719 
    105 H          -9.6658    0.7205    2.5873 H         1 AL4         0.0719 
    106 H          -8.8565    0.0537    1.1734 H         1 AL4         0.0719 
    107 O          -6.7598    3.4860    2.4195 O.3       1 AL4        -0.5485 
    108 N          -1.6206   -7.2709    2.7256 N.3       1 AL4        -0.4899 
    109 H          -1.9040   -6.8379    3.5809 H         1 AL4         0.3595 
    110 C          -0.6844   -8.3839    2.8367 C.3       1 AL4        -0.0279 
    111 H           0.1115   -8.0739    3.4995 H         1 AL4         0.0715 
    112 H          -1.1483   -9.2849    3.2168 H         1 AL4         0.0715 
    113 H          -0.2536   -8.5933    1.8675 H         1 AL4         0.0715 
    114 O          -3.9067   -6.5289    2.2452 O.3       1 AL4        -0.5372 
@<TRIPOS>BOND
     1    1    2 1    
     2    1    3 1    
     3    1    7 1    
     4    3    4 1    
     5    3    9 1    
     6    4    5 1    
     7    4    6 1    
     8    6    7 1    
     9    6   22 1    
    10    7    8 1    
    11    9   10 1    
    12    9   61 1    
    13   10   11 1    
    14   10   17 1    
    15   11   12 1    
    16   11   18 1    
    17   12   13 1    
    18   12   19 1    
    19   13   14 1    
    20   13   15 1    
    21   15   16 1    
    22   15   17 1    
    23   17   21 1    
    24   19   20 1    
    25   19  108 1    
    26   19  114 1    
    27   22   23 1    
    28   22   35 1    
    29   23   24 1    
    30   23   30 1    
    31   24   25 1    
    32   24   31 1    
    33   25   26 1    
    34   25   32 1    
    35   26   27 1    
    36   26   28 1    
    37   28   29 1    
    38   28   30 1    
    39   30   34 1    
    40   32   33 1    
    41   32   63 1    
    42   32   69 1    
    43   35   36 1    
    44   35   41 1    
    45   36   37 1    
    46   37   38 1    
    47   37   44 1    
    48   38   39 1    
    49   38   40 1    
    50   38   41 1    
    51   41   42 1    
    52   41   43 1    
    53   44   45 1    
    54   44   70 1    
    55   45   46 1    
    56   45   51 1    
    57   46   47 1    
    58   46   48 1    
    59   48   49 1    
    60   48   53 1    
    61   49   50 1    
    62   49   51 1    
    63   51   52 1    
    64   53   54 1    
    65   53   89 1    
    66   54   55 1    
    67   54   62 1    
    68   55   56 1    
    69   55   57 1    
    70   55   58 1    
    71   58   59 1    
    72   58   60 1    
    73   58   61 1    
    74   61   62 1    
    75   63   64 1    
    76   63   65 1    
    77   65   66 1    
    78   65   67 1    
    79   65   68 1    
    80   70   71 1    
    81   70   77 1    
    82   71   72 1    
    83   71   78 1    
    84   72   73 1    
    85   72   79 1    
    86   73   74 1    
    87   73   75 1    
    88   75   76 1    
    89   75   77 1    
    90   77   81 1    
    91   79   80 1    
    92   79   82 1    
    93   79   88 1    
    94   82   83 1    
    95   82   84 1    
    96   84   85 1    
    97   84   86 1    
    98   84   87 1    
    99   89   90 1    
   100   89   96 1    
   101   90   91 1    
   102   90   97 1    
   103   91   92 1    
   104   91   93 1    
   105   93   94 1    
   106   93   95 1    
   107   95   96 1    
   108   95   98 1    
   109   96  100 1    
   110   98   99 1    
   111   98  101 1    
   112   98  107 1    
   113  101  102 1    
   114  101  103 1    
   115  103  104 1    
   116  103  105 1    
   117  103  106 1    
   118  108  109 1    
   119  108  110 1    
   120  110  111 1    
   121  110  112 1    
   122  110  113 1    
@<TRIPOS>SUBSTRUCTURE
     1 AL4         1 GROUP             0       ****    0 ROOT    
